AeroDyn airfoil file.  Compatible with AeroDyn v13.0.
SERI 819 Hydrofoil.  Clean surface data.  Calculated by XFOIL. 
Viterna Extended with AR=7, Fourth column is the minimum pressure coefficient.
  5           Number of airfoil tables in this file
0.5           Table ID parameter (Reynolds number in millions).
  14.5        Stall angle (deg)
  0           Zero lift angle of attack (deg)
  0           Cn slope for zero lift (dimensionless)
  0           Cn at stall value for positive angle of attack
  0           Cn at stall value for negative angle of attack
  0           Angle of attack for minimum CD (deg)
  0           Minimum CD value
-180	0.0000	0.0452	-1
-175	0.0267	0.0543	-1
-170	0.0534	0.0816	-1
-165	0.0801	0.1262	-1
-160	0.1068	0.1866	-1
-155	0.1335	0.2610	-1
-150	0.1603	0.3472	-1
-145	0.2878	0.4424	-1
-140	0.3796	0.5438	-1
-135	0.4402	0.6481	-1
-130	0.4726	0.7522	-1
-125	0.4791	0.8528	-1
-120	0.4618	0.9469	-1
-115	0.4230	1.0314	-1
-110	0.3651	1.1037	-1
-105	0.2908	1.1615	-1
-100	0.2031	1.2031	-1
-95	0.1051	1.2270	-1
-90	0.0000	1.2324	-1
-85	-0.1089	1.2191	-1
-80	-0.2184	1.1874	-1
-75	-0.3254	1.1382	-1
-70	-0.4271	1.0728	-1
-65	-0.5211	0.9932	-1
-60	-0.6055	0.9017	-1
-55	-0.6790	0.8011	-1
-50	-0.7411	0.6942	-1
-45	-0.7922	0.5843	-1
-40	-0.8341	0.4746	-1
-35	-0.8702	0.3685	-1
-30	-0.9070	0.2690	-1
-28	-0.9242	0.2318	-1
-26	-0.9443	0.1962	-1
-24	-0.9687	0.1626	-1
-22	-0.9993	0.1311	-1
-20	-1.0388	0.1017	-1
-18	-1.0908	0.0747	-1
-16	-1.1610	0.0502	-1
-15	-1.1008	0.0453	-4.563
-14.5	-1.1581	0.0353	-4.674
-14	-1.2211	0.0260	-4.766
-13.5	-1.2775	0.0203	-4.797
-13	-1.3207	0.0184	-4.762
-12.5	-1.3083	0.0175	-4.514
-12	-1.2489	0.0171	-4.109
-11.5	-1.1734	0.0169	-3.68
-11	-1.0992	0.0167	-3.315
-10.5	-1.0247	0.0163	-2.977
-10	-0.9482	0.0161	-2.646
-9.5	-0.8747	0.0155	-2.335
-9	-0.8033	0.0150	-2.171
-8.5	-0.7397	0.0145	-2.091
-8	-0.6845	0.0139	-2.019
-7.5	-0.6292	0.0134	-1.948
-7	-0.5740	0.0129	-1.878
-6.5	-0.5195	0.0126	-1.812
-6	-0.4650	0.0123	-1.746
-5.5	-0.4103	0.0120	-1.679
-4.5	-0.3000	0.0116	-1.545
-4	-0.2449	0.0114	-1.48
-3.5	-0.1896	0.0112	-1.414
-3	-0.1339	0.0111	-1.351
-2.5	-0.0787	0.0110	-1.287
-2	-0.0230	0.0109	-1.224
-1.5	0.0325	0.0108	-1.163
-1	0.0884	0.0108	-1.102
-0.5	0.1442	0.0108	-1.042
0	0.2001	0.0108	-0.983
0.5	0.2557	0.0108	-0.945
1	0.3111	0.0108	-1.002
1.5	0.3662	0.0109	-1.061
2	0.4210	0.0110	-1.12
2.5	0.4756	0.0111	-1.181
3	0.5303	0.0113	-1.243
3.5	0.5844	0.0115	-1.305
4	0.6384	0.0117	-1.371
4.5	0.6923	0.0119	-1.442
5	0.7455	0.0121	-1.522
5.5	0.7983	0.0124	-1.609
6	0.8504	0.0126	-1.701
6.5	0.9020	0.0129	-1.797
7	0.9527	0.0132	-1.905
7.5	1.0026	0.0136	-2.015
8	1.0510	0.0139	-2.135
8.5	1.0977	0.0143	-2.274
9	1.1412	0.0147	-2.495
9.5	1.1805	0.0151	-2.722
10	1.2177	0.0155	-2.946
10.5	1.2505	0.0161	-3.176
11	1.2769	0.0164	-3.406
11.5	1.3088	0.0175	-3.694
12	1.3382	0.0188	-3.989
12.5	1.3606	0.0205	-4.263
13	1.3771	0.0228	-4.519
13.5	1.3897	0.0255	-4.767
14.5	1.4031	0.0328	-5.245
15	1.4026	0.0376	-5.429
15.5	1.3983	0.0432	-5.605
16	1.3906	0.0496	-5.747
16.5	1.3758	0.0573	-5.873
17	1.3578	0.0658	-5.973
17.5	1.3391	0.0749	-6.04
18	1.3182	0.0848	-6.109
18.5	1.2974	0.0950	-6.159
19	1.2784	0.1053	-6.223
19.5	1.2616	0.1153	-6.265
20	1.2489	0.1249	-6.343
21	1.1298	0.1154	-1
22	1.1050	0.1304	-1
24	1.0632	0.1620	-1
26	1.0292	0.1956	-1
28	1.0007	0.2311	-1
30	0.9762	0.2684	-1
35	0.9242	0.3679	-1
40	0.8762	0.4741	-1
45	0.8248	0.5838	-1
50	0.7660	0.6937	-1
55	0.6975	0.8006	-1
60	0.6188	0.9014	-1
65	0.5302	0.9929	-1
70	0.4328	1.0725	-1
75	0.3286	1.1380	-1
80	0.2198	1.1873	-1
85	0.1093	1.2190	-1
90	0.0000	1.2324	-1
95	-0.1048	1.2270	-1
100	-0.2017	1.2032	-1
105	-0.2876	1.1617	-1
110	-0.3594	1.1039	-1
115	-0.4139	1.0317	-1
120	-0.4485	0.9472	-1
125	-0.4606	0.8533	-1
130	-0.4477	0.7527	-1
135	-0.4076	0.6486	-1
140	-0.3375	0.5443	-1
145	-0.2953	0.4430	-1
150	-0.2531	0.3478	-1
155	-0.2109	0.2617	-1
160	-0.1688	0.1873	-1
165	-0.1266	0.1269	-1
170	-0.0844	0.0823	-1
175	-0.0422	0.0551	-1
180	0.0000	0.0459	-1
EOT 1
1.0           Table ID parameter (Reynolds number in millions).
  15          Stall angle (deg)
  0           Zero lift angle of attack (deg)
  0           Cn slope for zero lift (dimensionless)
  0           Cn at stall value for positive angle of attack
  0           Cn at stall value for negative angle of attack
  0           Angle of attack for minimum CD (deg)
  0           Minimum CD value
-180	0.0000	0.0430	-1
-175	0.0345	0.0522	-1
-170	0.0689	0.0795	-1
-165	0.1034	0.1241	-1
-160	0.1379	0.1846	-1
-155	0.1723	0.2591	-1
-150	0.2068	0.3454	-1
-145	0.3241	0.4407	-1
-140	0.4079	0.5422	-1
-135	0.4621	0.6466	-1
-130	0.4893	0.7509	-1
-125	0.4915	0.8516	-1
-120	0.4707	0.9458	-1
-115	0.4291	1.0305	-1
-110	0.3690	1.1030	-1
-105	0.2930	1.1610	-1
-100	0.2041	1.2027	-1
-95	0.1053	1.2268	-1
-90	0.0000	1.2324	-1
-85	-0.1087	1.2193	-1
-80	-0.2174	1.1878	-1
-75	-0.3232	1.1387	-1
-70	-0.4232	1.0735	-1
-65	-0.5150	0.9941	-1
-60	-0.5965	0.9028	-1
-55	-0.6666	0.8023	-1
-50	-0.7244	0.6955	-1
-45	-0.7703	0.5858	-1
-40	-0.8058	0.4762	-1
-35	-0.8340	0.3702	-1
-30	-0.8605	0.2708	-1
-28	-0.8727	0.2336	-1
-26	-0.8871	0.1982	-1
-24	-0.9050	0.1646	-1
-22	-0.9281	0.1330	-1
-20	-0.9587	0.1037	-1
-18	-1.0000	0.0768	-1
-16	-1.0570	0.0523	-1
-15	-1.0936	0.0410	-1
-14	-1.0796	0.0379	-4.198
-13.5	-1.1318	0.0290	-4.238
-13	-1.1890	0.0222	-4.281
-12.5	-1.2200	0.0157	-4.234
-12	-1.1725	0.0127	-3.889
-11.5	-1.1005	0.0123	-3.512
-11	-1.0276	0.0119	-3.162
-10.5	-0.9598	0.0116	-2.846
-10	-0.9035	0.0113	-2.572
-9.5	-0.8525	0.0110	-2.308
-9	-0.8027	0.0106	-2.215
-8.5	-0.7502	0.0103	-2.14
-8	-0.6970	0.0101	-2.069
-7.5	-0.6438	0.0100	-1.998
-7	-0.5897	0.0098	-1.928
-6.5	-0.5343	0.0096	-1.857
-6	-0.4783	0.0095	-1.786
-5.5	-0.4222	0.0093	-1.716
-5	-0.3664	0.0091	-1.646
-4.5	-0.3098	0.0091	-1.576
-4	-0.2532	0.0090	-1.507
-3.5	-0.1968	0.0089	-1.44
-3	-0.1400	0.0088	-1.374
-2.5	-0.0826	0.0088	-1.307
-1.5	0.0321	0.0087	-1.178
-1	0.0896	0.0087	-1.115
-0.5	0.1470	0.0087	-1.052
0	0.2042	0.0087	-0.991
0.5	0.2612	0.0088	-0.951
1	0.3180	0.0089	-1.01
1.5	0.3745	0.0090	-1.07
2	0.4312	0.0091	-1.131
2.5	0.4872	0.0092	-1.194
3	0.5437	0.0093	-1.258
3.5	0.5997	0.0095	-1.322
4	0.6553	0.0096	-1.389
4.5	0.7104	0.0098	-1.462
5	0.7651	0.0100	-1.544
5.5	0.8197	0.0102	-1.634
6	0.8736	0.0104	-1.729
6.5	0.9273	0.0106	-1.83
7	0.9802	0.0109	-1.941
7.5	1.0324	0.0111	-2.057
8	1.0835	0.0114	-2.185
8.5	1.1332	0.0117	-2.363
9	1.1810	0.0121	-2.601
9.5	1.2250	0.0125	-2.843
10	1.2659	0.0129	-3.087
10.5	1.3026	0.0135	-3.336
11.5	1.3614	0.0153	-3.902
12	1.3803	0.0162	-4.17
12.5	1.4018	0.0178	-4.444
13	1.4201	0.0197	-4.717
13.5	1.4339	0.0221	-4.971
14	1.4475	0.0248	-5.254
14.5	1.4526	0.0283	-5.501
15	1.4557	0.0324	-5.714
15.5	1.4514	0.0376	-5.897
16	1.4477	0.0431	-6.063
16.5	1.4373	0.0499	-6.23
17	1.4245	0.0574	-6.365
17.5	1.4090	0.0656	-6.459
18	1.3914	0.0746	-6.56
18.5	1.3734	0.0841	-6.644
19	1.3555	0.0939	-6.736
19.5	1.3372	0.1040	-6.803
20	1.3256	0.1132	-6.902
21	1.1866	0.1098	-1
22	1.1586	0.1248	-1
24	1.1111	0.1564	-1
26	1.0722	0.1902	-1
28	1.0395	0.2258	-1
30	1.0112	0.2631	-1
35	0.9515	0.3629	-1
40	0.8975	0.4694	-1
45	0.8413	0.5795	-1
50	0.7785	0.6898	-1
55	0.7069	0.7972	-1
60	0.6255	0.8983	-1
65	0.5348	0.9903	-1
70	0.4357	1.0705	-1
75	0.3302	1.1364	-1
80	0.2205	1.1862	-1
85	0.1094	1.2185	-1
90	0.0000	1.2324	-1
95	-0.1046	1.2276	-1
100	-0.2010	1.2043	-1
105	-0.2860	1.1633	-1
110	-0.3565	1.1060	-1
115	-0.4093	1.0342	-1
120	-0.4417	0.9503	-1
125	-0.4512	0.8567	-1
130	-0.4351	0.7566	-1
135	-0.3911	0.6529	-1
140	-0.3162	0.5490	-1
145	-0.2767	0.4480	-1
150	-0.2372	0.3531	-1
155	-0.1976	0.2672	-1
160	-0.1581	0.1930	-1
165	-0.1186	0.1327	-1
170	-0.0791	0.0883	-1
175	-0.0395	0.0611	-1
180	0.0000	0.0519	-1
EOT 2
1.5          Table ID parameter (Reynolds number in millions).
  15.5        Stall angle (deg)
  0           Zero lift angle of attack (deg)
  0           Cn slope for zero lift (dimensionless)
  0           Cn at stall value for positive angle of attack
  0           Cn at stall value for negative angle of attack
  0           Angle of attack for minimum CD (deg)
  0           Minimum CD value
-180	0.0000	0.0409	-1
-175	0.0388	0.0501	-1
-170	0.0777	0.0774	-1
-165	0.1165	0.1221	-1
-160	0.1553	0.1826	-1
-155	0.1941	0.2572	-1
-150	0.2330	0.3435	-1
-145	0.3445	0.4390	-1
-140	0.4238	0.5405	-1
-135	0.4745	0.6451	-1
-130	0.4987	0.7495	-1
-125	0.4985	0.8504	-1
-120	0.4758	0.9448	-1
-115	0.4325	1.0296	-1
-110	0.3711	1.1022	-1
-105	0.2942	1.1604	-1
-100	0.2046	1.2023	-1
-95	0.1055	1.2266	-1
-90	0.0000	1.2324	-1
-85	-0.1085	1.2195	-1
-80	-0.2169	1.1881	-1
-75	-0.3220	1.1393	-1
-70	-0.4210	1.0742	-1
-65	-0.5115	0.9950	-1
-60	-0.5915	0.9038	-1
-55	-0.6595	0.8035	-1
-50	-0.7150	0.6969	-1
-45	-0.7579	0.5873	-1
-40	-0.7898	0.4779	-1
-35	-0.8136	0.3719	-1
-30	-0.8343	0.2727	-1
-28	-0.8437	0.2355	-1
-26	-0.8550	0.2001	-1
-24	-0.8692	0.1665	-1
-22	-0.8881	0.1350	-1
-20	-0.9136	0.1057	-1
-18	-0.9489	0.0788	-1
-16	-0.9283	0.0760	-4.117
-15.5	-0.9415	0.0685	-4.042
-15	-0.9595	0.0607	-3.96
-14.5	-0.9853	0.0523	-3.949
-14	-1.0277	0.0429	-3.984
-13.5	-1.0685	0.0344	-3.978
-13	-1.1183	0.0267	-4.007
-12.5	-1.1432	0.0178	-3.961
-12	-1.1307	0.0117	-3.785
-11.5	-1.0796	0.0104	-3.47
-11	-1.0269	0.0101	-3.174
-10.5	-0.9756	0.0098	-2.899
-10	-0.9249	0.0095	-2.635
-9.5	-0.8711	0.0093	-2.362
-9	-0.8188	0.0091	-2.244
-8.5	-0.7659	0.0089	-2.17
-8	-0.7112	0.0089	-2.096
-7.5	-0.6549	0.0088	-2.022
-7	-0.5997	0.0086	-1.95
-6.5	-0.5428	0.0085	-1.876
-6	-0.4856	0.0084	-1.803
-5.5	-0.4281	0.0083	-1.731
-5	-0.3716	0.0081	-1.66
-4.5	-0.3144	0.0081	-1.588
-4	-0.2568	0.0081	-1.517
-3.5	-0.1989	0.0080	-1.449
-3	-0.1411	0.0080	-1.381
-2.5	-0.0830	0.0079	-1.313
-2	-0.0246	0.0079	-1.247
-1.5	0.0336	0.0079	-1.183
-0.5	0.1497	0.0079	-1.055
0	0.2075	0.0080	-0.993
0.5	0.2650	0.0081	-0.955
1	0.3226	0.0081	-1.014
1.5	0.3801	0.0082	-1.075
2	0.4373	0.0083	-1.137
2.5	0.4945	0.0084	-1.201
3	0.5517	0.0085	-1.266
3.5	0.6086	0.0086	-1.331
4	0.6650	0.0088	-1.398
4.5	0.7212	0.0089	-1.473
5	0.7771	0.0091	-1.556
6	0.8878	0.0094	-1.745
6.5	0.9423	0.0096	-1.848
7	0.9962	0.0099	-1.961
7.5	1.0493	0.0101	-2.079
8	1.1015	0.0104	-2.212
8.5	1.1525	0.0107	-2.412
9	1.2016	0.0110	-2.656
9.5	1.2485	0.0115	-2.907
10	1.2893	0.0120	-3.155
10.5	1.3215	0.0128	-3.402
11	1.3501	0.0137	-3.687
11.5	1.3777	0.0147	-3.97
12	1.4036	0.0157	-4.256
13	1.4403	0.0184	-4.808
13.5	1.4539	0.0206	-5.065
14	1.4672	0.0231	-5.343
14.5	1.4740	0.0264	-5.613
15	1.4786	0.0302	-5.834
15.5	1.4788	0.0347	-6.042
16	1.4778	0.0398	-6.225
16.5	1.4712	0.0459	-6.418
17	1.4599	0.0529	-6.568
17.5	1.4501	0.0603	-6.699
18	1.4362	0.0685	-6.841
18.5	1.4226	0.0771	-6.947
19	1.4064	0.0864	-7.066
19.5	1.3933	0.0955	-7.174
20	1.3801	0.1048	-7.279
21	1.2252	0.1066	-1
22	1.1951	0.1217	-1
24	1.1438	0.1534	-1
26	1.1015	0.1871	-1
28	1.0659	0.2228	-1
30	1.0350	0.2602	-1
35	0.9701	0.3601	-1
40	0.9120	0.4668	-1
45	0.8526	0.5771	-1
50	0.7871	0.6877	-1
55	0.7133	0.7952	-1
60	0.6301	0.8966	-1
65	0.5379	0.9889	-1
70	0.4377	1.0693	-1
75	0.3313	1.1355	-1
80	0.2210	1.1856	-1
85	0.1096	1.2182	-1
90	0.0000	1.2324	-1
95	-0.1045	1.2279	-1
100	-0.2005	1.2048	-1
105	-0.2849	1.1642	-1
110	-0.3545	1.1072	-1
115	-0.4062	1.0357	-1
120	-0.4372	0.9520	-1
125	-0.4448	0.8587	-1
130	-0.4266	0.7588	-1
135	-0.3798	0.6553	-1
140	-0.3017	0.5516	-1
145	-0.2640	0.4508	-1
150	-0.2263	0.3560	-1
155	-0.1886	0.2702	-1
160	-0.1508	0.1961	-1
165	-0.1131	0.1360	-1
170	-0.0754	0.0916	-1
175	-0.0377	0.0645	-1
180	0.0000	0.0553	-1
EOT 3
2.0          Table ID parameter (Reynolds number in millions).
  15.5        Stall angle (deg)
  0           Zero lift angle of attack (deg)
  0           Cn slope for zero lift (dimensionless)
  0           Cn at stall value for positive angle of attack
  0           Cn at stall value for negative angle of attack
  0           Angle of attack for minimum CD (deg)
  0           Minimum CD value
-180	0.0000	0.0360	-1
-175	0.0391	0.0452	-1
-170	0.0782	0.0726	-1
-165	0.1174	0.1173	-1
-160	0.1565	0.1780	-1
-155	0.1956	0.2527	-1
-150	0.2347	0.3393	-1
-145	0.3459	0.4349	-1
-140	0.4249	0.5368	-1
-135	0.4753	0.6417	-1
-130	0.4994	0.7463	-1
-125	0.4990	0.8476	-1
-120	0.4761	0.9423	-1
-115	0.4328	1.0275	-1
-110	0.3713	1.1005	-1
-105	0.2943	1.1592	-1
-100	0.2047	1.2015	-1
-95	0.1055	1.2262	-1
-90	0.0000	1.2324	-1
-85	-0.1085	1.2199	-1
-80	-0.2169	1.1890	-1
-75	-0.3219	1.1405	-1
-70	-0.4209	1.0759	-1
-65	-0.5113	0.9971	-1
-60	-0.5912	0.9063	-1
-55	-0.6591	0.8063	-1
-50	-0.7143	0.7001	-1
-45	-0.7571	0.5907	-1
-40	-0.7888	0.4816	-1
-35	-0.8122	0.3760	-1
-30	-0.8326	0.2769	-1
-28	-0.8418	0.2398	-1
-26	-0.8528	0.2045	-1
-24	-0.8668	0.1710	-1
-22	-0.8854	0.1396	-1
-20	-0.9106	0.1103	-1
-18	-0.9455	0.0834	-1
-16	-0.9946	0.0590	-1
-15	-0.9941	0.0569	-4.115
-14.5	-1.0161	0.0491	-4.09
-14	-1.0478	0.0409	-4.075
-13.5	-1.0756	0.0336	-4.018
-13	-1.1112	0.0273	-3.987
-12.5	-1.1008	0.0199	-3.808
-12	-1.0890	0.0133	-3.668
-11.5	-1.0847	0.0100	-3.493
-11	-1.0419	0.0092	-3.221
-10.5	-0.9908	0.0089	-2.944
-10	-0.9376	0.0086	-2.67
-9.5	-0.8832	0.0085	-2.399
-9	-0.8303	0.0084	-2.262
-8.5	-0.7748	0.0083	-2.185
-7.5	-0.6624	0.0080	-2.036
-7	-0.6050	0.0079	-1.962
-6.5	-0.5470	0.0079	-1.887
-6	-0.4895	0.0077	-1.812
-5.5	-0.4321	0.0076	-1.74
-5	-0.3745	0.0076	-1.666
-4.5	-0.3164	0.0076	-1.594
-3.5	-0.1998	0.0075	-1.453
-3	-0.1411	0.0074	-1.384
-2	-0.0238	0.0074	-1.25
-1.5	0.0349	0.0074	-1.184
-1	0.0933	0.0074	-1.12
-0.5	0.1515	0.0075	-1.055
0	0.2096	0.0075	-0.993
0.5	0.2677	0.0076	-0.957
1	0.3257	0.0077	-1.017
2	0.4415	0.0078	-1.14
2.5	0.4993	0.0079	-1.205
3	0.5569	0.0080	-1.271
3.5	0.6140	0.0082	-1.336
4	0.6708	0.0083	-1.404
4.5	0.7275	0.0084	-1.479
5	0.7839	0.0086	-1.562
5.5	0.8400	0.0087	-1.655
6.5	0.9511	0.0091	-1.858
7	1.0058	0.0093	-1.973
7.5	1.0595	0.0095	-2.092
8	1.1122	0.0098	-2.23
8.5	1.1633	0.0101	-2.44
9	1.2129	0.0105	-2.685
9.5	1.2582	0.0110	-2.935
10	1.2982	0.0117	-3.182
10.5	1.3304	0.0124	-3.433
11	1.3594	0.0133	-3.725
11.5	1.3888	0.0142	-4.016
12	1.4142	0.0153	-4.31
12.5	1.4359	0.0166	-4.59
13.5	1.4653	0.0198	-5.118
14	1.4778	0.0223	-5.404
14.5	1.4850	0.0254	-5.671
15	1.4940	0.0288	-5.906
15.5	1.4971	0.0329	-6.138
16	1.4960	0.0378	-6.329
16.5	1.4939	0.0433	-6.534
17	1.4881	0.0496	-6.726
17.5	1.4824	0.0562	-6.884
18	1.4723	0.0637	-7.055
18.5	1.4596	0.0720	-7.171
19	1.4480	0.0804	-7.337
19.5	1.4332	0.0896	-7.459
20	1.4205	0.0987	-7.552
21	1.2380	0.1049	-1
22	1.2072	0.1199	-1
24	1.1546	0.1516	-1
26	1.1112	0.1854	-1
28	1.0746	0.2211	-1
30	1.0429	0.2586	-1
35	0.9762	0.3586	-1
40	0.9168	0.4654	-1
45	0.8563	0.5758	-1
50	0.7900	0.6864	-1
55	0.7154	0.7941	-1
60	0.6317	0.8957	-1
65	0.5389	0.9881	-1
70	0.4384	1.0687	-1
75	0.3316	1.1350	-1
80	0.2211	1.1853	-1
85	0.1096	1.2181	-1
90	0.0000	1.2324	-1
95	-0.1044	1.2280	-1
100	-0.2004	1.2052	-1
105	-0.2846	1.1646	-1
110	-0.3538	1.1078	-1
115	-0.4051	1.0365	-1
120	-0.4356	0.9529	-1
125	-0.4427	0.8598	-1
130	-0.4237	0.7600	-1
135	-0.3761	0.6566	-1
140	-0.2969	0.5530	-1
145	-0.2598	0.4523	-1
150	-0.2227	0.3576	-1
155	-0.1856	0.2719	-1
160	-0.1484	0.1979	-1
165	-0.1113	0.1378	-1
170	-0.0742	0.0935	-1
175	-0.0371	0.0663	-1
180	0.0000	0.0572	-1
EOT 4
2.5          Table ID parameter (Reynolds number in millions).
  16          Stall angle (deg)
  0           Zero lift angle of attack (deg)
  0           Cn slope for zero lift (dimensionless)
  0           Cn at stall value for positive angle of attack
  0           Cn at stall value for negative angle of attack
  0           Angle of attack for minimum CD (deg)
  0           Minimum CD value
-180	0.0000	0.0381	-1
-175	0.0389	0.0474	-1
-170	0.0777	0.0747	-1
-165	0.1166	0.1194	-1
-160	0.1555	0.1800	-1
-155	0.1944	0.2547	-1
-150	0.2332	0.3411	-1
-145	0.3447	0.4367	-1
-140	0.4240	0.5384	-1
-135	0.4746	0.6432	-1
-130	0.4988	0.7477	-1
-125	0.4986	0.8488	-1
-120	0.4758	0.9434	-1
-115	0.4326	1.0284	-1
-110	0.3712	1.1013	-1
-105	0.2942	1.1597	-1
-100	0.2046	1.2019	-1
-95	0.1055	1.2264	-1
-90	0.0000	1.2324	-1
-85	-0.1085	1.2197	-1
-80	-0.2169	1.1886	-1
-75	-0.3220	1.1400	-1
-70	-0.4210	1.0752	-1
-65	-0.5115	0.9962	-1
-60	-0.5915	0.9052	-1
-55	-0.6595	0.8051	-1
-50	-0.7149	0.6987	-1
-45	-0.7578	0.5892	-1
-40	-0.7897	0.4800	-1
-35	-0.8133	0.3742	-1
-30	-0.8341	0.2751	-1
-28	-0.8434	0.2379	-1
-26	-0.8546	0.2025	-1
-24	-0.8689	0.1690	-1
-22	-0.8877	0.1376	-1
-20	-0.9132	0.1083	-1
-18	-0.9484	0.0814	-1
-16	-0.9979	0.0570	-1
-15	-1.0301	0.0457	-1
-14	-1.0809	0.0376	-4.221
-13.5	-1.1066	0.0309	-4.151
-13	-1.1154	0.0252	-4.011
-12.5	-1.0839	0.0200	-3.762
-12	-1.0601	0.0142	-3.587
-11.5	-1.0619	0.0113	-3.424
-11	-1.0486	0.0088	-3.243
-10.5	-0.9987	0.0083	-2.969
-10	-0.9456	0.0081	-2.697
-9.5	-0.8923	0.0080	-2.422
-9	-0.8363	0.0080	-2.271
-8.5	-0.7809	0.0078	-2.196
-8	-0.7235	0.0077	-2.12
-7.5	-0.6656	0.0076	-2.043
-7	-0.6080	0.0075	-1.969
-6.5	-0.5502	0.0074	-1.894
-6	-0.4920	0.0073	-1.818
-5.5	-0.4339	0.0073	-1.744
-5	-0.3760	0.0073	-1.671
-4.5	-0.3177	0.0072	-1.598
-4	-0.2588	0.0072	-1.526
-3.5	-0.1998	0.0072	-1.455
-3	-0.1409	0.0071	-1.386
-2.5	-0.0820	0.0071	-1.317
-2	-0.0230	0.0071	-1.251
-1.5	0.0357	0.0071	-1.186
-1	0.0942	0.0071	-1.121
-0.5	0.1527	0.0072	-1.056
0	0.2112	0.0072	-0.993
0.5	0.2696	0.0073	-0.959
1	0.3279	0.0074	-1.019
1.5	0.3861	0.0074	-1.08
2	0.4444	0.0075	-1.143
2.5	0.5025	0.0076	-1.208
3	0.5604	0.0077	-1.274
4.5	0.7321	0.0081	-1.483
5	0.7888	0.0082	-1.567
5.5	0.8455	0.0084	-1.661
6	0.9015	0.0085	-1.76
6.5	0.9571	0.0087	-1.866
7	1.0121	0.0089	-1.981
7.5	1.0662	0.0091	-2.101
8	1.1193	0.0094	-2.241
8.5	1.1701	0.0098	-2.457
9.5	1.2633	0.0108	-2.951
10.5	1.3358	0.0122	-3.452
11	1.3664	0.0130	-3.754
11.5	1.3948	0.0140	-4.041
12	1.4212	0.0150	-4.34
12.5	1.4444	0.0162	-4.626
13	1.4623	0.0177	-4.904
14	1.4857	0.0217	-5.442
14.5	1.4971	0.0244	-5.731
15	1.5054	0.0277	-5.971
15.5	1.5099	0.0317	-6.205
16	1.5142	0.0360	-6.429
16.5	1.5139	0.0411	-6.65
17	1.5122	0.0468	-6.86
17.5	1.5081	0.0531	-7.029
18	1.4996	0.0602	-7.229
18.5	1.4908	0.0678	-7.359
19	1.4796	0.0760	-7.541
19.5	1.4662	0.0848	-7.678
20	1.4520	0.0939	-7.762
21	1.2740	0.1023	-1
22	1.2411	0.1173	-1
24	1.1849	0.1491	-1
26	1.1384	0.1829	-1
28	1.0992	0.2187	-1
30	1.0651	0.2562	-1
35	0.9935	0.3563	-1
40	0.9303	0.4632	-1
45	0.8667	0.5738	-1
50	0.7979	0.6846	-1
55	0.7213	0.7925	-1
60	0.6359	0.8943	-1
65	0.5419	0.9869	-1
70	0.4402	1.0677	-1
75	0.3327	1.1343	-1
80	0.2216	1.1848	-1
85	0.1097	1.2178	-1
90	0.0000	1.2324	-1
95	-0.1043	1.2283	-1
100	-0.1999	1.2057	-1
105	-0.2835	1.1654	-1
110	-0.3520	1.1088	-1
115	-0.4022	1.0376	-1
120	-0.4314	0.9543	-1
125	-0.4368	0.8614	-1
130	-0.4158	0.7618	-1
135	-0.3657	0.6586	-1
140	-0.2834	0.5552	-1
145	-0.2480	0.4546	-1
150	-0.2126	0.3600	-1
155	-0.1771	0.2745	-1
160	-0.1417	0.2005	-1
165	-0.1063	0.1405	-1
170	-0.0709	0.0962	-1
175	-0.0354	0.0691	-1
180	0.0000	0.0600	-1
EOT 5